/*--------------------------------*- C++ -*----------------------------------*\
| =========                 |                                                 |
| \\      /  F ield         | OpenFOAM: The Open Source CFD Toolbox           |
|  \\    /   O peration     | Version:  v1806                                 |
|   \\  /    A nd           | Web:      www.OpenFOAM.com                      |
|    \\/     M anipulation  |                                                 |
\*---------------------------------------------------------------------------*/
FoamFile
{
    version     2.0;
    format      ascii;
    class       dictionary;
    object      blockMeshDict;
}
// * * * * * * * * * * * * * * * * * * * * * * * * * * * * * * * * * * * * * //

convertToMeters 0.001;
mergeType points;
checkFaceCorrespondence false;

vertices
(
    
    (0.00000000 0.00000000 -0.10000000) // 0
    (5.00000000 0.00000000 -0.10000000) // 1
    (5.00000000 2.50000000 -0.10000000) // 2
    (0.00000000 2.50000000 -0.10000000) // 3
    (0.00000000 0.00000000 0.00000000) // 4
    (5.00000000 0.00000000 0.00000000) // 5
    (5.00000000 2.50000000 0.00000000) // 6
    (0.00000000 2.50000000 0.00000000) // 7
    (40.00000000 0.00000000 -0.10000000) // 8
    (40.00000000 2.50000000 -0.10000000) // 9
    (40.00000000 0.00000000 0.00000000) // 10
    (40.00000000 2.50000000 0.00000000) // 11
    (5.00000000 5.00000000 -0.10000000) // 12
    (0.00000000 5.00000000 -0.10000000) // 13
    (5.00000000 5.00000000 0.00000000) // 14
    (0.00000000 5.00000000 0.00000000) // 15
    (40.00000000 5.00000000 -0.10000000) // 16
    (40.00000000 5.00000000 0.00000000) // 17
    (45.00000000 2.50000000 -0.10000000) // 18
    (45.00000000 5.00000000 -0.10000000) // 19
    (45.00000000 2.50000000 0.00000000) // 20
    (45.00000000 5.00000000 0.00000000) // 21
    (40.00000000 7.50000000 -0.10000000) // 22
    (5.00000000 7.50000000 -0.10000000) // 23
    (40.00000000 7.50000000 0.00000000) // 24
    (5.00000000 7.50000000 0.00000000) // 25
    (45.00000000 0.00000000 -0.10000000) // 26
    (45.00000000 0.00000000 0.00000000) // 27
);

blocks
(
    // inlet
    hex ( 0 1 2 3 4 5 6 7 )
    fluid_area (51 26 1) simpleGrading (1 1 1) // 0

    // layer 1 (test)
    hex ( 1 8 9 2 5 10 11 6 )
    test_area (351 26 1) simpleGrading (1 1 1) // 1

    // layer 2 (solid, opt, solid)
    hex ( 3 2 12 13 7 6 14 15 )
    solid_area (51 26 1)  simpleGrading (1 1 1) // 2

    hex ( 2 9 16 12 6 11 17 14 ) (351 26 1) simpleGrading (1 1 1) // 3

    hex ( 9 18 19 16 11 20 21 17 )
    solid_area (51 26 1)  simpleGrading (1 1 1) // 4

    // layer 3 (opt)
    hex ( 12 16 22 23 14 17 24 25 ) (351 26 1) simpleGrading (1 1 1) // 5

    // outlet
    hex ( 8 26 18 9 10 27 20 11 )
    fluid_area (51 26 1) simpleGrading (1 1 1) // 6
);

edges
(
    
);

boundary
(
    inlet
    {
        type patch;
        faces
        (
            (4 0 3 7)
            
        );

    }

    force_out
    {
        type patch;
        faces
        (
            (20 18 19 21)
            
        );

    }

    force_in
    {
        type patch;
        faces
        (
            (7 3 13 15)
            
        );

    }

    walls
    {
        type wall;
        faces
        (
            (15 14 12 13)
            (17 21 19 16)
            (14 12 23 25)
            (25 24 22 23)
            (17 16 22 24)
            
        );

    }

    frontAndBack
    {
        type empty;
        faces
        (
            (4 5 6 7)
            (0 1 2 3)
            (5 10 11 6)
            (1 8 9 2)
            (7 6 14 15)
            (3 2 12 13)
            (6 11 17 14)
            (2 9 16 12)
            (11 20 21 17)
            (9 18 19 16)
            (14 17 24 25)
            (12 16 22 23)
            (10 27 20 11)
            (8 26 18 9)
            
        );

    }

    outlet
    {
        type patch;
        faces
        (
            (27 26 18 20)
            
        );

    }

    sym
    {
        type symmetry;
        faces
        (
            (4 5 1 0)
            (5 10 8 1)
            (10 27 26 8)
            
        );

    }
);

mergePatchPairs
();



faces
();


// ************************************************************************* //
