/*--------------------------------*- C++ -*----------------------------------*\
| =========                 |                                                 |
| \\      /  F ield         | OpenFOAM: The Open Source CFD Toolbox           |
|  \\    /   O peration     | Version:  5.x                                   |
|   \\  /    A nd           | Web:      www.OpenFOAM.org                      |
|    \\/     M anipulation  |                                                 |
\*---------------------------------------------------------------------------*/
FoamFile
{
    version     2.0;
    format      ascii;
    class       polyBoundaryMesh;
    location    "constant/polyMesh";
    object      boundary;
}
// * * * * * * * * * * * * * * * * * * * * * * * * * * * * * * * * * * * * * //

4
(
    left
    {
        type            patch;
        nFaces          200;
        startFace       159400;
    }
    none
    {
        type            patch;
        nFaces          996;
        startFace       159600;
    }
    force
    {
        type            patch;
        nFaces          4;
        startFace       160596;
    }
    frontAndBack
    {
        type            empty;
        inGroups        1(empty);
        nFaces          160000;
        startFace       160600;
    }
)

// ************************************************************************* //
