/*--------------------------------*- C++ -*----------------------------------*\
| =========                 |                                                 |
| \\      /  F ield         | OpenFOAM: The Open Source CFD Toolbox           |
|  \\    /   O peration     | Version:  5                                     |
|   \\  /    A nd           | Web:      www.OpenFOAM.org                      |
|    \\/     M anipulation  |                                                 |
\*---------------------------------------------------------------------------*/
FoamFile
{
    version     2.0;
    format      ascii;
    class       volScalarField;
    location    "0";
    object      nut;
}
// * * * * * * * * * * * * * * * * * * * * * * * * * * * * * * * * * * * * * //

dimensions      [0 2 -1 0 0 0 0];

//internalField   uniform 29.2e-06;
internalField   uniform 6e-05;

boundaryField
{
    inlet
    {
        type            fixedValue;
        // value           uniform 29.2e-06;
        value           uniform 6e-05;
    }

    outlet
    {
        type            zeroGradient;
    }

    Wall
    {
        type            zeroGradient;
    }

    right
    {
        type            symmetry;
    }

    frontAndBack
    {
        type            empty;
    }
}

// ************************************************************************* //
